/*--------------------------------*- C++ -*----------------------------------*\
  =========                 |
  \\      /  F ield         | OpenFOAM: The Open Source CFD Toolbox
   \\    /   O peration     | Website:  https://openfoam.org
    \\  /    A nd           | Version:  6
     \\/     M anipulation  |
\*---------------------------------------------------------------------------*/
FoamFile
{
    version     2.0;
    format      ascii;
    class       dictionary;
    location    "system";
    object      fvSolution;
}
// * * * * * * * * * * * * * * * * * * * * * * * * * * * * * * * * * * * * * //

solvers
{
    p
    {
        solver          GAMG;
        tolerance       1e-08;
        relTol          0.01;
        smoother        GaussSeidel;
        nCellsInCoarsestLevel 20;
    }

    pFinal
    {
        solver          GAMG;
        tolerance       1e-08;
        relTol          0;
        smoother        GaussSeidel;
    }


    "pcorr.*"
    {
        solver          GAMG;
        tolerance       1e-2;
        relTol          0;
        smoother 		DICGaussSeidel;
        cacheAgglomeration no;
        maxIter 		50;
    }


    U
    {
        solver          smoothSolver;
        smoother        GaussSeidel;
        nSweeps         2;
        tolerance       1e-07;
        relTol          0.001;
    }

    k
    {
        solver          smoothSolver;
        smoother        GaussSeidel;
        nSweeps         2;
        tolerance       1e-07;
        relTol          0.001;
    }

    omega
    {
        solver          smoothSolver;
        smoother        GaussSeidel;
        nSweeps         2;
        tolerance       1e-07;
        relTol          0.001;
    }


    "(U|k|omega)Final"
    {
        $U;
        tolerance       1e-08;
        relTol          0;
    }
}

PIMPLE
{
    nNonOrthogonalCorrectors 2;
    nCorrectors          2;
    nOuterCorrectors    50;
    pRefCell            0;
    pRefValue           101.629889;

	residualControl
	{
	"(U|p)" { relTol 0; tolerance 1e-03; } }
	}
 
relaxationFactors
{
    fields
    {
        p      0.3;
        pFinal   1;
    }
    equations
    {
        "U|k|omega"     0.5;
        "(U|k|omega)Final"   1;
    }
}


// ************************************************************************* //
